LTspice 24.0.12 for Windows
Circuit: * C:\Users\peter\OneDrive\Documents\Projects\pedals\Cyanide OD-DIST\LTspice\fuzz_pedal_ODmode.asc
Start Time: Sat Nov 15 18:11:03 2025
r_gain2: both pins shorted together -- ignoring.
solver = Normal
Maximum thread count: 16



WARNING: Node N020 is floating.

Direct Newton iteration failed to find .op point.  (Use ".option noopiter" to skip.)
Starting Gmin stepping
Gmin = 10
Gmin = 1.07374
Gmin = 0.115292
Gmin = 0.0123794
Gmin = 0.00132923
Gmin = 0.000142725
Gmin = 1.5325e-05
Gmin = 1.6455e-06
vernier = 0.5
Gmin = 3.06744e-07
vernier = 0.666667
Gmin = 7.59426e-08
vernier = 0.888888
vernier = 1
Gmin = 9.33136e-09
Gmin = 1.00195e-09
Gmin = 1.07583e-10
Gmin = 1.15517e-11
Gmin = 1.24035e-12
Gmin = 1.33182e-13
Gmin = 0
Gmin stepping succeeded in finding the operating point.

.step t=0



.step t=0.2



.step t=0.4



.step t=0.6



.step t=0.8
tnom = 27
temp = 27
method = modified trap
.step t=1
Total elapsed time: 1.452 seconds.

