LTspice 24.0.12 for Windows
Circuit: * C:\Users\peter\OneDrive\Documents\Projects\pedals\Cyanide OD-DIST\LTspice\fuzz_pedal_PowerSup.asc
Start Time: Sun Aug 17 19:10:28 2025
